MODEL 1
REMARK VINA RESULT:      -7.9      0.000      0.000
REMARK  10 active torsions:
REMARK  status: ('A' for Active; 'I' for Inactive)
REMARK    1  A    between atoms: O_2  and  C_15 
REMARK    2  A    between atoms: O_2  and  C_17 
REMARK    3  A    between atoms: O_3  and  C_11 
REMARK    4  A    between atoms: O_4  and  C_12 
REMARK    5  A    between atoms: O_5  and  C_13 
REMARK    6  A    between atoms: O_6  and  C_16 
REMARK    7  A    between atoms: O_8  and  C_22 
REMARK    8  A    between atoms: O_10  and  C_31 
REMARK    9  A    between atoms: C_14  and  C_16 
REMARK   10  A    between atoms: C_24  and  C_26 
ROOT
HETATM    1  O   UNK N   1     -21.750  70.534  33.703  0.00  0.00    -0.309 OA
HETATM    2  O   UNK N   1     -19.727  67.895  31.548  0.00  0.00    -0.287 OA
HETATM    3  C   UNK N   1     -24.627  68.932  32.192  0.00  0.00     0.077 A 
HETATM    4  C   UNK N   1     -23.840  69.787  32.959  0.00  0.00     0.075 A 
HETATM    5  C   UNK N   1     -23.997  67.990  31.357  0.00  0.00     0.074 A 
HETATM    6  C   UNK N   1     -22.448  69.701  32.935  0.00  0.00     0.095 A 
HETATM    7  C   UNK N   1     -21.796  68.736  32.126  0.00  0.00     0.081 A 
HETATM    8  C   UNK N   1     -22.601  67.879  31.306  0.00  0.00     0.085 A 
HETATM    9  C   UNK N   1     -20.379  68.686  32.199  0.00  0.00     0.190 A 
HETATM   10  C   UNK N   1     -20.425  70.492  33.806  0.00  0.00     0.090 A 
HETATM   11  C   UNK N   1     -19.705  69.556  33.055  0.00  0.00     0.094 A 
ENDROOT
BRANCH   3  12
HETATM   12  O   UNK N   1     -25.980  69.069  32.284  0.00  0.00    -0.318 OA
BRANCH  12  13
HETATM   13  C   UNK N   1     -26.910  68.186  32.809  0.00  0.00     0.298 C 
HETATM   14  O   UNK N   1     -26.308  67.558  33.925  0.00  0.00    -0.348 OA
HETATM   15  C   UNK N   1     -27.222  66.700  34.583  0.00  0.00     0.179 C 
HETATM   16  C   UNK N   1     -27.605  65.529  33.650  0.00  0.00     0.180 C 
HETATM   17  C   UNK N   1     -28.232  66.103  32.367  0.00  0.00     0.183 C 
HETATM   18  C   UNK N   1     -27.269  67.130  31.743  0.00  0.00     0.205 C 
BRANCH  15  19
HETATM   19  C   UNK N   1     -26.555  66.199  35.870  0.00  0.00     0.198 C 
BRANCH  19  20
HETATM   20  O   UNK N   1     -27.313  66.572  36.991  0.00  0.00    -0.398 OA
HETATM   21  H   UNK N   1     -28.210  66.155  36.887  0.00  0.00     0.209 HD
ENDBRANCH  19  20
ENDBRANCH  15  19
BRANCH  16  22
HETATM   22  O   UNK N   1     -28.520  64.681  34.297  0.00  0.00    -0.390 OA
HETATM   23  H   UNK N   1     -28.503  63.815  33.814  0.00  0.00     0.210 HD
ENDBRANCH  16  22
BRANCH  17  24
HETATM   24  O   UNK N   1     -28.496  65.062  31.462  0.00  0.00    -0.390 OA
HETATM   25  H   UNK N   1     -27.909  64.303  31.713  0.00  0.00     0.210 HD
ENDBRANCH  17  24
BRANCH  18  26
HETATM   26  O   UNK N   1     -27.887  67.736  30.638  0.00  0.00    -0.388 OA
HETATM   27  H   UNK N   1     -28.110  68.666  30.904  0.00  0.00     0.210 HD
ENDBRANCH  18  26
ENDBRANCH  12  13
ENDBRANCH   3  12
BRANCH   8  28
HETATM   28  O   UNK N   1     -22.097  66.943  30.467  0.00  0.00    -0.360 OA
HETATM   29  H   UNK N   1     -21.989  66.006  30.649  0.00  0.00     0.217 HD
ENDBRANCH   8  28
BRANCH  10  30
HETATM   30  C   UNK N   1     -19.751  71.437  34.733  0.00  0.00    -0.002 A 
HETATM   31  C   UNK N   1     -20.503  72.441  35.371  0.00  0.00     0.017 A 
HETATM   32  C   UNK N   1     -19.885  73.338  36.248  0.00  0.00     0.037 A 
HETATM   33  C   UNK N   1     -18.514  73.226  36.521  0.00  0.00     0.065 A 
HETATM   34  C   UNK N   1     -17.765  72.222  35.902  0.00  0.00     0.037 A 
HETATM   35  C   UNK N   1     -18.371  71.340  35.006  0.00  0.00     0.017 A 
BRANCH  33  36
HETATM   36  O   UNK N   1     -17.911  74.077  37.374  0.00  0.00    -0.361 OA
HETATM   37  H   UNK N   1     -17.426  74.855  37.062  0.00  0.00     0.217 HD
ENDBRANCH  33  36
ENDBRANCH  10  30
TORSDOF 10
ENDMDL
MODEL 2
REMARK VINA RESULT:      -7.6      2.001      4.009
REMARK  10 active torsions:
REMARK  status: ('A' for Active; 'I' for Inactive)
REMARK    1  A    between atoms: O_2  and  C_15 
REMARK    2  A    between atoms: O_2  and  C_17 
REMARK    3  A    between atoms: O_3  and  C_11 
REMARK    4  A    between atoms: O_4  and  C_12 
REMARK    5  A    between atoms: O_5  and  C_13 
REMARK    6  A    between atoms: O_6  and  C_16 
REMARK    7  A    between atoms: O_8  and  C_22 
REMARK    8  A    between atoms: O_10  and  C_31 
REMARK    9  A    between atoms: C_14  and  C_16 
REMARK   10  A    between atoms: C_24  and  C_26 
ROOT
HETATM    1  O   UNK N   1     -20.680  68.719  32.355  0.00  0.00    -0.309 OA
HETATM    2  O   UNK N   1     -20.524  71.737  34.918  0.00  0.00    -0.287 OA
HETATM    3  C   UNK N   1     -24.252  69.300  32.538  0.00  0.00     0.077 A 
HETATM    4  C   UNK N   1     -23.015  68.762  32.193  0.00  0.00     0.075 A 
HETATM    5  C   UNK N   1     -24.302  70.347  33.479  0.00  0.00     0.074 A 
HETATM    6  C   UNK N   1     -21.833  69.264  32.737  0.00  0.00     0.095 A 
HETATM    7  C   UNK N   1     -21.861  70.340  33.661  0.00  0.00     0.081 A 
HETATM    8  C   UNK N   1     -23.134  70.872  34.048  0.00  0.00     0.085 A 
HETATM    9  C   UNK N   1     -20.609  70.819  34.128  0.00  0.00     0.190 A 
HETATM   10  C   UNK N   1     -19.496  69.165  32.761  0.00  0.00     0.090 A 
HETATM   11  C   UNK N   1     -19.432  70.237  33.659  0.00  0.00     0.094 A 
ENDROOT
BRANCH   3  12
HETATM   12  O   UNK N   1     -25.359  68.765  31.949  0.00  0.00    -0.318 OA
BRANCH  12  13
HETATM   13  C   UNK N   1     -26.424  68.103  32.539  0.00  0.00     0.298 C 
HETATM   14  O   UNK N   1     -25.925  67.450  33.690  0.00  0.00    -0.348 OA
HETATM   15  C   UNK N   1     -26.968  66.818  34.410  0.00  0.00     0.179 C 
HETATM   16  C   UNK N   1     -27.577  65.679  33.561  0.00  0.00     0.180 C 
HETATM   17  C   UNK N   1     -28.113  66.275  32.246  0.00  0.00     0.183 C 
HETATM   18  C   UNK N   1     -26.991  67.065  31.548  0.00  0.00     0.205 C 
BRANCH  15  19
HETATM   19  C   UNK N   1     -26.379  66.287  35.723  0.00  0.00     0.198 C 
BRANCH  19  20
HETATM   20  O   UNK N   1     -27.276  66.499  36.782  0.00  0.00    -0.398 OA
HETATM   21  H   UNK N   1     -27.264  65.677  37.341  0.00  0.00     0.209 HD
ENDBRANCH  19  20
ENDBRANCH  15  19
BRANCH  16  22
HETATM   22  O   UNK N   1     -28.618  65.057  34.269  0.00  0.00    -0.390 OA
HETATM   23  H   UNK N   1     -28.212  64.317  34.789  0.00  0.00     0.210 HD
ENDBRANCH  16  22
BRANCH  17  24
HETATM   24  O   UNK N   1     -28.580  65.244  31.415  0.00  0.00    -0.390 OA
HETATM   25  H   UNK N   1     -27.888  64.534  31.416  0.00  0.00     0.210 HD
ENDBRANCH  17  24
BRANCH  18  26
HETATM   26  O   UNK N   1     -27.508  67.702  30.409  0.00  0.00    -0.388 OA
HETATM   27  H   UNK N   1     -27.326  68.672  30.511  0.00  0.00     0.210 HD
ENDBRANCH  18  26
ENDBRANCH  12  13
ENDBRANCH   3  12
BRANCH   8  28
HETATM   28  O   UNK N   1     -23.294  71.873  34.945  0.00  0.00    -0.360 OA
HETATM   29  H   UNK N   1     -23.813  72.673  34.828  0.00  0.00     0.217 HD
ENDBRANCH   8  28
BRANCH  10  30
HETATM   30  C   UNK N   1     -18.270  68.514  32.232  0.00  0.00    -0.002 A 
HETATM   31  C   UNK N   1     -17.222  68.185  33.111  0.00  0.00     0.017 A 
HETATM   32  C   UNK N   1     -16.061  67.570  32.630  0.00  0.00     0.037 A 
HETATM   33  C   UNK N   1     -15.944  67.251  31.270  0.00  0.00     0.065 A 
HETATM   34  C   UNK N   1     -16.987  67.562  30.393  0.00  0.00     0.037 A 
HETATM   35  C   UNK N   1     -18.138  68.199  30.864  0.00  0.00     0.017 A 
BRANCH  33  36
HETATM   36  O   UNK N   1     -14.836  66.647  30.798  0.00  0.00    -0.361 OA
HETATM   37  H   UNK N   1     -14.660  65.707  30.955  0.00  0.00     0.217 HD
ENDBRANCH  33  36
ENDBRANCH  10  30
TORSDOF 10
ENDMDL
MODEL 3
REMARK VINA RESULT:      -7.6      2.094      2.852
REMARK  10 active torsions:
REMARK  status: ('A' for Active; 'I' for Inactive)
REMARK    1  A    between atoms: O_2  and  C_15 
REMARK    2  A    between atoms: O_2  and  C_17 
REMARK    3  A    between atoms: O_3  and  C_11 
REMARK    4  A    between atoms: O_4  and  C_12 
REMARK    5  A    between atoms: O_5  and  C_13 
REMARK    6  A    between atoms: O_6  and  C_16 
REMARK    7  A    between atoms: O_8  and  C_22 
REMARK    8  A    between atoms: O_10  and  C_31 
REMARK    9  A    between atoms: C_14  and  C_16 
REMARK   10  A    between atoms: C_24  and  C_26 
ROOT
HETATM    1  O   UNK N   1     -21.827  71.651  34.626  0.00  0.00    -0.309 OA
HETATM    2  O   UNK N   1     -23.124  74.043  31.745  0.00  0.00    -0.287 OA
HETATM    3  C   UNK N   1     -24.214  69.331  33.196  0.00  0.00     0.077 A 
HETATM    4  C   UNK N   1     -23.234  69.882  34.017  0.00  0.00     0.075 A 
HETATM    5  C   UNK N   1     -24.771  70.121  32.172  0.00  0.00     0.074 A 
HETATM    6  C   UNK N   1     -22.778  71.185  33.819  0.00  0.00     0.095 A 
HETATM    7  C   UNK N   1     -23.303  71.985  32.772  0.00  0.00     0.081 A 
HETATM    8  C   UNK N   1     -24.338  71.434  31.948  0.00  0.00     0.085 A 
HETATM    9  C   UNK N   1     -22.746  73.282  32.612  0.00  0.00     0.190 A 
HETATM   10  C   UNK N   1     -21.276  72.852  34.483  0.00  0.00     0.090 A 
HETATM   11  C   UNK N   1     -21.722  73.699  33.461  0.00  0.00     0.094 A 
ENDROOT
BRANCH   3  12
HETATM   12  O   UNK N   1     -24.594  68.045  33.444  0.00  0.00    -0.318 OA
BRANCH  12  13
HETATM   13  C   UNK N   1     -25.780  67.578  33.987  0.00  0.00     0.298 C 
HETATM   14  O   UNK N   1     -25.439  66.668  35.016  0.00  0.00    -0.348 OA
HETATM   15  C   UNK N   1     -26.595  66.206  35.692  0.00  0.00     0.179 C 
HETATM   16  C   UNK N   1     -27.470  65.376  34.726  0.00  0.00     0.180 C 
HETATM   17  C   UNK N   1     -27.863  66.262  33.530  0.00  0.00     0.183 C 
HETATM   18  C   UNK N   1     -26.592  66.854  32.894  0.00  0.00     0.205 C 
BRANCH  15  19
HETATM   19  C   UNK N   1     -26.135  65.371  36.894  0.00  0.00     0.198 C 
BRANCH  19  20
HETATM   20  O   UNK N   1     -25.823  64.064  36.489  0.00  0.00    -0.398 OA
HETATM   21  H   UNK N   1     -25.559  64.111  35.532  0.00  0.00     0.209 HD
ENDBRANCH  19  20
ENDBRANCH  15  19
BRANCH  16  22
HETATM   22  O   UNK N   1     -28.622  64.925  35.392  0.00  0.00    -0.390 OA
HETATM   23  H   UNK N   1     -28.960  65.685  35.932  0.00  0.00     0.210 HD
ENDBRANCH  16  22
BRANCH  17  24
HETATM   24  O   UNK N   1     -28.576  65.500  32.590  0.00  0.00    -0.390 OA
HETATM   25  H   UNK N   1     -28.101  65.591  31.723  0.00  0.00     0.210 HD
ENDBRANCH  17  24
BRANCH  18  26
HETATM   26  O   UNK N   1     -26.955  67.750  31.876  0.00  0.00    -0.388 OA
HETATM   27  H   UNK N   1     -26.460  68.594  32.042  0.00  0.00     0.210 HD
ENDBRANCH  18  26
ENDBRANCH  12  13
ENDBRANCH   3  12
BRANCH   8  28
HETATM   28  O   UNK N   1     -24.941  72.108  30.940  0.00  0.00    -0.360 OA
HETATM   29  H   UNK N   1     -25.848  72.005  30.641  0.00  0.00     0.217 HD
ENDBRANCH   8  28
BRANCH  10  30
HETATM   30  C   UNK N   1     -20.186  73.252  35.410  0.00  0.00    -0.002 A 
HETATM   31  C   UNK N   1     -18.884  72.759  35.206  0.00  0.00     0.017 A 
HETATM   32  C   UNK N   1     -17.845  73.126  36.068  0.00  0.00     0.037 A 
HETATM   33  C   UNK N   1     -18.088  74.012  37.127  0.00  0.00     0.065 A 
HETATM   34  C   UNK N   1     -19.376  74.518  37.326  0.00  0.00     0.037 A 
HETATM   35  C   UNK N   1     -20.422  74.134  36.484  0.00  0.00     0.017 A 
BRANCH  33  36
HETATM   36  O   UNK N   1     -17.092  74.384  37.956  0.00  0.00    -0.361 OA
HETATM   37  H   UNK N   1     -16.868  73.871  38.746  0.00  0.00     0.217 HD
ENDBRANCH  33  36
ENDBRANCH  10  30
TORSDOF 10
ENDMDL
MODEL 4
REMARK VINA RESULT:      -7.3     19.657     23.024
REMARK  10 active torsions:
REMARK  status: ('A' for Active; 'I' for Inactive)
REMARK    1  A    between atoms: O_2  and  C_15 
REMARK    2  A    between atoms: O_2  and  C_17 
REMARK    3  A    between atoms: O_3  and  C_11 
REMARK    4  A    between atoms: O_4  and  C_12 
REMARK    5  A    between atoms: O_5  and  C_13 
REMARK    6  A    between atoms: O_6  and  C_16 
REMARK    7  A    between atoms: O_8  and  C_22 
REMARK    8  A    between atoms: O_10  and  C_31 
REMARK    9  A    between atoms: C_14  and  C_16 
REMARK   10  A    between atoms: C_24  and  C_26 
ROOT
HETATM    1  O   UNK N   1     -43.419  70.155  40.049  0.00  0.00    -0.309 OA
HETATM    2  O   UNK N   1     -43.564  69.669  36.119  0.00  0.00    -0.287 OA
HETATM    3  C   UNK N   1     -45.329  73.148  39.325  0.00  0.00     0.077 A 
HETATM    4  C   UNK N   1     -44.641  72.151  40.013  0.00  0.00     0.075 A 
HETATM    5  C   UNK N   1     -45.395  73.086  37.920  0.00  0.00     0.074 A 
HETATM    6  C   UNK N   1     -44.048  71.086  39.335  0.00  0.00     0.095 A 
HETATM    7  C   UNK N   1     -44.133  70.989  37.923  0.00  0.00     0.081 A 
HETATM    8  C   UNK N   1     -44.808  72.032  37.209  0.00  0.00     0.085 A 
HETATM    9  C   UNK N   1     -43.544  69.847  37.320  0.00  0.00     0.190 A 
HETATM   10  C   UNK N   1     -42.879  69.067  39.510  0.00  0.00     0.090 A 
HETATM   11  C   UNK N   1     -42.935  68.883  38.123  0.00  0.00     0.094 A 
ENDROOT
BRANCH   3  12
HETATM   12  O   UNK N   1     -45.894  74.146  40.062  0.00  0.00    -0.318 OA
BRANCH  12  13
HETATM   13  C   UNK N   1     -45.273  75.142  40.798  0.00  0.00     0.298 C 
HETATM   14  O   UNK N   1     -45.648  74.959  42.150  0.00  0.00    -0.348 OA
HETATM   15  C   UNK N   1     -44.983  75.883  42.993  0.00  0.00     0.179 C 
HETATM   16  C   UNK N   1     -45.446  77.320  42.662  0.00  0.00     0.180 C 
HETATM   17  C   UNK N   1     -45.129  77.614  41.185  0.00  0.00     0.183 C 
HETATM   18  C   UNK N   1     -45.756  76.521  40.301  0.00  0.00     0.205 C 
BRANCH  15  19
HETATM   19  C   UNK N   1     -45.304  75.509  44.446  0.00  0.00     0.198 C 
BRANCH  19  20
HETATM   20  O   UNK N   1     -44.239  75.865  45.288  0.00  0.00    -0.398 OA
HETATM   21  H   UNK N   1     -44.260  75.240  46.061  0.00  0.00     0.209 HD
ENDBRANCH  19  20
ENDBRANCH  15  19
BRANCH  16  22
HETATM   22  O   UNK N   1     -44.781  78.240  43.491  0.00  0.00    -0.390 OA
HETATM   23  H   UNK N   1     -45.420  78.502  44.203  0.00  0.00     0.210 HD
ENDBRANCH  16  22
BRANCH  17  24
HETATM   24  O   UNK N   1     -45.631  78.878  40.835  0.00  0.00    -0.390 OA
HETATM   25  H   UNK N   1     -45.203  79.538  41.440  0.00  0.00     0.210 HD
ENDBRANCH  17  24
BRANCH  18  26
HETATM   26  O   UNK N   1     -45.372  76.724  38.966  0.00  0.00    -0.388 OA
HETATM   27  H   UNK N   1     -44.453  76.363  38.869  0.00  0.00     0.210 HD
ENDBRANCH  18  26
ENDBRANCH  12  13
ENDBRANCH   3  12
BRANCH   8  28
HETATM   28  O   UNK N   1     -44.926  72.070  35.860  0.00  0.00    -0.360 OA
HETATM   29  H   UNK N   1     -44.748  71.353  35.246  0.00  0.00     0.217 HD
ENDBRANCH   8  28
BRANCH  10  30
HETATM   30  C   UNK N   1     -42.244  68.067  40.406  0.00  0.00    -0.002 A 
HETATM   31  C   UNK N   1     -41.140  67.324  39.949  0.00  0.00     0.017 A 
HETATM   32  C   UNK N   1     -40.528  66.380  40.779  0.00  0.00     0.037 A 
HETATM   33  C   UNK N   1     -40.993  66.187  42.088  0.00  0.00     0.065 A 
HETATM   34  C   UNK N   1     -42.078  66.932  42.555  0.00  0.00     0.037 A 
HETATM   35  C   UNK N   1     -42.709  67.858  41.720  0.00  0.00     0.017 A 
BRANCH  33  36
HETATM   36  O   UNK N   1     -40.402  65.289  42.902  0.00  0.00    -0.361 OA
HETATM   37  H   UNK N   1     -40.683  64.363  42.929  0.00  0.00     0.217 HD
ENDBRANCH  33  36
ENDBRANCH  10  30
TORSDOF 10
ENDMDL
MODEL 5
REMARK VINA RESULT:      -7.1      2.721      4.377
REMARK  10 active torsions:
REMARK  status: ('A' for Active; 'I' for Inactive)
REMARK    1  A    between atoms: O_2  and  C_15 
REMARK    2  A    between atoms: O_2  and  C_17 
REMARK    3  A    between atoms: O_3  and  C_11 
REMARK    4  A    between atoms: O_4  and  C_12 
REMARK    5  A    between atoms: O_5  and  C_13 
REMARK    6  A    between atoms: O_6  and  C_16 
REMARK    7  A    between atoms: O_8  and  C_22 
REMARK    8  A    between atoms: O_10  and  C_31 
REMARK    9  A    between atoms: C_14  and  C_16 
REMARK   10  A    between atoms: C_24  and  C_26 
ROOT
HETATM    1  O   UNK N   1     -18.905  69.624  33.005  0.00  0.00    -0.309 OA
HETATM    2  O   UNK N   1     -19.194  71.952  36.199  0.00  0.00    -0.287 OA
HETATM    3  C   UNK N   1     -22.521  69.852  33.033  0.00  0.00     0.077 A 
HETATM    4  C   UNK N   1     -21.220  69.514  32.672  0.00  0.00     0.075 A 
HETATM    5  C   UNK N   1     -22.728  70.638  34.183  0.00  0.00     0.074 A 
HETATM    6  C   UNK N   1     -20.126  69.967  33.409  0.00  0.00     0.095 A 
HETATM    7  C   UNK N   1     -20.313  70.787  34.551  0.00  0.00     0.081 A 
HETATM    8  C   UNK N   1     -21.652  71.107  34.948  0.00  0.00     0.085 A 
HETATM    9  C   UNK N   1     -19.143  71.243  35.214  0.00  0.00     0.190 A 
HETATM   10  C   UNK N   1     -17.795  70.056  33.595  0.00  0.00     0.090 A 
HETATM   11  C   UNK N   1     -17.889  70.886  34.718  0.00  0.00     0.094 A 
ENDROOT
BRANCH   3  12
HETATM   12  O   UNK N   1     -23.534  69.383  32.251  0.00  0.00    -0.318 OA
BRANCH  12  13
HETATM   13  C   UNK N   1     -24.842  69.088  32.604  0.00  0.00     0.298 C 
HETATM   14  O   UNK N   1     -24.805  67.925  33.409  0.00  0.00    -0.348 OA
HETATM   15  C   UNK N   1     -26.095  67.599  33.894  0.00  0.00     0.179 C 
HETATM   16  C   UNK N   1     -27.017  67.216  32.714  0.00  0.00     0.180 C 
HETATM   17  C   UNK N   1     -27.092  68.404  31.739  0.00  0.00     0.183 C 
HETATM   18  C   UNK N   1     -25.667  68.819  31.329  0.00  0.00     0.205 C 
BRANCH  15  19
HETATM   19  C   UNK N   1     -25.946  66.442  34.890  0.00  0.00     0.198 C 
BRANCH  19  20
HETATM   20  O   UNK N   1     -26.852  66.590  35.951  0.00  0.00    -0.398 OA
HETATM   21  H   UNK N   1     -26.777  67.530  36.268  0.00  0.00     0.209 HD
ENDBRANCH  19  20
ENDBRANCH  15  19
BRANCH  16  22
HETATM   22  O   UNK N   1     -28.300  66.902  33.192  0.00  0.00    -0.390 OA
HETATM   23  H   UNK N   1     -28.210  66.087  33.750  0.00  0.00     0.210 HD
ENDBRANCH  16  22
BRANCH  17  24
HETATM   24  O   UNK N   1     -27.844  68.044  30.609  0.00  0.00    -0.390 OA
HETATM   25  H   UNK N   1     -27.808  68.810  29.980  0.00  0.00     0.210 HD
ENDBRANCH  17  24
BRANCH  18  26
HETATM   26  O   UNK N   1     -25.729  69.972  30.530  0.00  0.00    -0.388 OA
HETATM   27  H   UNK N   1     -24.795  70.278  30.388  0.00  0.00     0.210 HD
ENDBRANCH  18  26
ENDBRANCH  12  13
ENDBRANCH   3  12
BRANCH   8  28
HETATM   28  O   UNK N   1     -21.961  71.851  36.036  0.00  0.00    -0.360 OA
HETATM   29  H   UNK N   1     -21.377  72.071  36.767  0.00  0.00     0.217 HD
ENDBRANCH   8  28
BRANCH  10  30
HETATM   30  C   UNK N   1     -16.483  69.651  33.029  0.00  0.00    -0.002 A 
HETATM   31  C   UNK N   1     -16.364  68.422  32.356  0.00  0.00     0.017 A 
HETATM   32  C   UNK N   1     -15.137  68.026  31.815  0.00  0.00     0.037 A 
HETATM   33  C   UNK N   1     -14.020  68.866  31.914  0.00  0.00     0.065 A 
HETATM   34  C   UNK N   1     -14.133  70.096  32.568  0.00  0.00     0.037 A 
HETATM   35  C   UNK N   1     -15.350  70.485  33.132  0.00  0.00     0.017 A 
BRANCH  33  36
HETATM   36  O   UNK N   1     -12.835  68.501  31.385  0.00  0.00    -0.361 OA
HETATM   37  H   UNK N   1     -12.408  69.016  30.685  0.00  0.00     0.217 HD
ENDBRANCH  33  36
ENDBRANCH  10  30
TORSDOF 10
ENDMDL
MODEL 6
REMARK VINA RESULT:      -7.0     18.870     20.951
REMARK  10 active torsions:
REMARK  status: ('A' for Active; 'I' for Inactive)
REMARK    1  A    between atoms: O_2  and  C_15 
REMARK    2  A    between atoms: O_2  and  C_17 
REMARK    3  A    between atoms: O_3  and  C_11 
REMARK    4  A    between atoms: O_4  and  C_12 
REMARK    5  A    between atoms: O_5  and  C_13 
REMARK    6  A    between atoms: O_6  and  C_16 
REMARK    7  A    between atoms: O_8  and  C_22 
REMARK    8  A    between atoms: O_10  and  C_31 
REMARK    9  A    between atoms: C_14  and  C_16 
REMARK   10  A    between atoms: C_24  and  C_26 
ROOT
HETATM    1  O   UNK N   1     -42.544  66.546  34.080  0.00  0.00    -0.309 OA
HETATM    2  O   UNK N   1     -43.766  70.243  33.344  0.00  0.00    -0.287 OA
HETATM    3  C   UNK N   1     -43.346  67.414  37.506  0.00  0.00     0.077 A 
HETATM    4  C   UNK N   1     -42.928  66.701  36.384  0.00  0.00     0.075 A 
HETATM    5  C   UNK N   1     -43.754  68.752  37.351  0.00  0.00     0.074 A 
HETATM    6  C   UNK N   1     -42.939  67.282  35.116  0.00  0.00     0.095 A 
HETATM    7  C   UNK N   1     -43.379  68.618  34.936  0.00  0.00     0.081 A 
HETATM    8  C   UNK N   1     -43.774  69.367  36.092  0.00  0.00     0.085 A 
HETATM    9  C   UNK N   1     -43.404  69.113  33.605  0.00  0.00     0.190 A 
HETATM   10  C   UNK N   1     -42.579  66.979  32.824  0.00  0.00     0.090 A 
HETATM   11  C   UNK N   1     -43.019  68.281  32.555  0.00  0.00     0.094 A 
ENDROOT
BRANCH   3  12
HETATM   12  O   UNK N   1     -43.321  66.769  38.707  0.00  0.00    -0.318 OA
BRANCH  12  13
HETATM   13  C   UNK N   1     -42.807  67.205  39.918  0.00  0.00     0.298 C 
HETATM   14  O   UNK N   1     -41.761  66.321  40.271  0.00  0.00    -0.348 OA
HETATM   15  C   UNK N   1     -41.114  66.745  41.458  0.00  0.00     0.179 C 
HETATM   16  C   UNK N   1     -42.097  66.666  42.648  0.00  0.00     0.180 C 
HETATM   17  C   UNK N   1     -43.312  67.562  42.346  0.00  0.00     0.183 C 
HETATM   18  C   UNK N   1     -43.917  67.162  40.988  0.00  0.00     0.205 C 
BRANCH  15  19
HETATM   19  C   UNK N   1     -39.892  65.843  41.676  0.00  0.00     0.198 C 
BRANCH  19  20
HETATM   20  O   UNK N   1     -40.111  64.977  42.758  0.00  0.00    -0.398 OA
HETATM   21  H   UNK N   1     -41.058  64.678  42.704  0.00  0.00     0.209 HD
ENDBRANCH  19  20
ENDBRANCH  15  19
BRANCH  16  22
HETATM   22  O   UNK N   1     -41.460  67.095  43.824  0.00  0.00    -0.390 OA
HETATM   23  H   UNK N   1     -41.609  66.391  44.507  0.00  0.00     0.210 HD
ENDBRANCH  16  22
BRANCH  17  24
HETATM   24  O   UNK N   1     -44.265  67.428  43.369  0.00  0.00    -0.390 OA
HETATM   25  H   UNK N   1     -44.687  68.318  43.490  0.00  0.00     0.210 HD
ENDBRANCH  17  24
BRANCH  18  26
HETATM   26  O   UNK N   1     -44.953  68.051  40.660  0.00  0.00    -0.388 OA
HETATM   27  H   UNK N   1     -45.729  67.815  41.231  0.00  0.00     0.210 HD
ENDBRANCH  18  26
ENDBRANCH  12  13
ENDBRANCH   3  12
BRANCH   8  28
HETATM   28  O   UNK N   1     -44.180  70.658  36.054  0.00  0.00    -0.360 OA
HETATM   29  H   UNK N   1     -44.951  71.006  35.598  0.00  0.00     0.217 HD
ENDBRANCH   8  28
BRANCH  10  30
HETATM   30  C   UNK N   1     -42.162  66.055  31.739  0.00  0.00    -0.002 A 
HETATM   31  C   UNK N   1     -42.140  66.509  30.408  0.00  0.00     0.017 A 
HETATM   32  C   UNK N   1     -41.748  65.653  29.374  0.00  0.00     0.037 A 
HETATM   33  C   UNK N   1     -41.345  64.341  29.659  0.00  0.00     0.065 A 
HETATM   34  C   UNK N   1     -41.349  63.887  30.981  0.00  0.00     0.037 A 
HETATM   35  C   UNK N   1     -41.764  64.730  32.015  0.00  0.00     0.017 A 
BRANCH  33  36
HETATM   36  O   UNK N   1     -40.952  63.511  28.672  0.00  0.00    -0.361 OA
HETATM   37  H   UNK N   1     -40.086  63.597  28.248  0.00  0.00     0.217 HD
ENDBRANCH  33  36
ENDBRANCH  10  30
TORSDOF 10
ENDMDL
MODEL 7
REMARK VINA RESULT:      -7.0      1.921      2.986
REMARK  10 active torsions:
REMARK  status: ('A' for Active; 'I' for Inactive)
REMARK    1  A    between atoms: O_2  and  C_15 
REMARK    2  A    between atoms: O_2  and  C_17 
REMARK    3  A    between atoms: O_3  and  C_11 
REMARK    4  A    between atoms: O_4  and  C_12 
REMARK    5  A    between atoms: O_5  and  C_13 
REMARK    6  A    between atoms: O_6  and  C_16 
REMARK    7  A    between atoms: O_8  and  C_22 
REMARK    8  A    between atoms: O_10  and  C_31 
REMARK    9  A    between atoms: C_14  and  C_16 
REMARK   10  A    between atoms: C_24  and  C_26 
ROOT
HETATM    1  O   UNK N   1     -20.590  70.974  34.481  0.00  0.00    -0.309 OA
HETATM    2  O   UNK N   1     -21.975  74.447  33.169  0.00  0.00    -0.287 OA
HETATM    3  C   UNK N   1     -23.707  69.704  33.139  0.00  0.00     0.077 A 
HETATM    4  C   UNK N   1     -22.460  69.767  33.757  0.00  0.00     0.075 A 
HETATM    5  C   UNK N   1     -24.302  70.894  32.682  0.00  0.00     0.074 A 
HETATM    6  C   UNK N   1     -21.786  70.980  33.898  0.00  0.00     0.095 A 
HETATM    7  C   UNK N   1     -22.355  72.184  33.412  0.00  0.00     0.081 A 
HETATM    8  C   UNK N   1     -23.654  72.130  32.810  0.00  0.00     0.085 A 
HETATM    9  C   UNK N   1     -21.579  73.365  33.554  0.00  0.00     0.190 A 
HETATM   10  C   UNK N   1     -19.835  72.061  34.605  0.00  0.00     0.090 A 
HETATM   11  C   UNK N   1     -20.314  73.290  34.135  0.00  0.00     0.094 A 
ENDROOT
BRANCH   3  12
HETATM   12  O   UNK N   1     -24.292  68.478  33.026  0.00  0.00    -0.318 OA
BRANCH  12  13
HETATM   13  C   UNK N   1     -25.637  68.164  32.902  0.00  0.00     0.298 C 
HETATM   14  O   UNK N   1     -25.968  67.309  33.979  0.00  0.00    -0.348 OA
HETATM   15  C   UNK N   1     -27.352  67.007  33.984  0.00  0.00     0.179 C 
HETATM   16  C   UNK N   1     -27.715  66.189  32.724  0.00  0.00     0.180 C 
HETATM   17  C   UNK N   1     -27.347  67.013  31.477  0.00  0.00     0.183 C 
HETATM   18  C   UNK N   1     -25.869  67.436  31.562  0.00  0.00     0.205 C 
BRANCH  15  19
HETATM   19  C   UNK N   1     -27.659  66.228  35.269  0.00  0.00     0.198 C 
BRANCH  19  20
HETATM   20  O   UNK N   1     -26.930  66.754  36.347  0.00  0.00    -0.398 OA
HETATM   21  H   UNK N   1     -25.967  66.647  36.125  0.00  0.00     0.209 HD
ENDBRANCH  19  20
ENDBRANCH  15  19
BRANCH  16  22
HETATM   22  O   UNK N   1     -29.089  65.898  32.722  0.00  0.00    -0.390 OA
HETATM   23  H   UNK N   1     -29.344  65.702  33.661  0.00  0.00     0.210 HD
ENDBRANCH  16  22
BRANCH  17  24
HETATM   24  O   UNK N   1     -27.575  66.250  30.320  0.00  0.00    -0.390 OA
HETATM   25  H   UNK N   1     -27.011  65.437  30.393  0.00  0.00     0.210 HD
ENDBRANCH  17  24
BRANCH  18  26
HETATM   26  O   UNK N   1     -25.563  68.281  30.483  0.00  0.00    -0.388 OA
HETATM   27  H   UNK N   1     -26.378  68.338  29.919  0.00  0.00     0.210 HD
ENDBRANCH  18  26
ENDBRANCH  12  13
ENDBRANCH   3  12
BRANCH   8  28
HETATM   28  O   UNK N   1     -24.316  73.214  32.340  0.00  0.00    -0.360 OA
HETATM   29  H   UNK N   1     -25.061  73.657  32.755  0.00  0.00     0.217 HD
ENDBRANCH   8  28
BRANCH  10  30
HETATM   30  C   UNK N   1     -18.494  71.931  35.229  0.00  0.00    -0.002 A 
HETATM   31  C   UNK N   1     -17.827  73.080  35.692  0.00  0.00     0.017 A 
HETATM   32  C   UNK N   1     -16.564  72.976  36.284  0.00  0.00     0.037 A 
HETATM   33  C   UNK N   1     -15.964  71.720  36.447  0.00  0.00     0.065 A 
HETATM   34  C   UNK N   1     -16.627  70.573  36.004  0.00  0.00     0.037 A 
HETATM   35  C   UNK N   1     -17.877  70.673  35.389  0.00  0.00     0.017 A 
BRANCH  33  36
HETATM   36  O   UNK N   1     -14.753  71.607  37.028  0.00  0.00    -0.361 OA
HETATM   37  H   UNK N   1     -14.611  71.830  37.959  0.00  0.00     0.217 HD
ENDBRANCH  33  36
ENDBRANCH  10  30
TORSDOF 10
ENDMDL
MODEL 8
REMARK VINA RESULT:      -6.9     19.870     22.587
REMARK  10 active torsions:
REMARK  status: ('A' for Active; 'I' for Inactive)
REMARK    1  A    between atoms: O_2  and  C_15 
REMARK    2  A    between atoms: O_2  and  C_17 
REMARK    3  A    between atoms: O_3  and  C_11 
REMARK    4  A    between atoms: O_4  and  C_12 
REMARK    5  A    between atoms: O_5  and  C_13 
REMARK    6  A    between atoms: O_6  and  C_16 
REMARK    7  A    between atoms: O_8  and  C_22 
REMARK    8  A    between atoms: O_10  and  C_31 
REMARK    9  A    between atoms: C_14  and  C_16 
REMARK   10  A    between atoms: C_24  and  C_26 
ROOT
HETATM    1  O   UNK N   1     -44.953  73.968  40.357  0.00  0.00    -0.309 OA
HETATM    2  O   UNK N   1     -45.002  74.972  36.524  0.00  0.00    -0.287 OA
HETATM    3  C   UNK N   1     -44.687  70.604  39.038  0.00  0.00     0.077 A 
HETATM    4  C   UNK N   1     -44.777  71.675  39.924  0.00  0.00     0.075 A 
HETATM    5  C   UNK N   1     -44.744  70.857  37.654  0.00  0.00     0.074 A 
HETATM    6  C   UNK N   1     -44.888  72.986  39.462  0.00  0.00     0.095 A 
HETATM    7  C   UNK N   1     -44.912  73.263  38.071  0.00  0.00     0.081 A 
HETATM    8  C   UNK N   1     -44.858  72.161  37.156  0.00  0.00     0.085 A 
HETATM    9  C   UNK N   1     -44.979  74.629  37.688  0.00  0.00     0.190 A 
HETATM   10  C   UNK N   1     -44.993  75.254  40.024  0.00  0.00     0.090 A 
HETATM   11  C   UNK N   1     -45.001  75.617  38.672  0.00  0.00     0.094 A 
ENDROOT
BRANCH   3  12
HETATM   12  O   UNK N   1     -44.564  69.355  39.570  0.00  0.00    -0.318 OA
BRANCH  12  13
HETATM   13  C   UNK N   1     -43.695  68.338  39.208  0.00  0.00     0.298 C 
HETATM   14  O   UNK N   1     -44.440  67.135  39.195  0.00  0.00    -0.348 OA
HETATM   15  C   UNK N   1     -43.649  66.050  38.745  0.00  0.00     0.179 C 
HETATM   16  C   UNK N   1     -42.510  65.778  39.754  0.00  0.00     0.180 C 
HETATM   17  C   UNK N   1     -41.654  67.051  39.887  0.00  0.00     0.183 C 
HETATM   18  C   UNK N   1     -42.561  68.241  40.250  0.00  0.00     0.205 C 
BRANCH  15  19
HETATM   19  C   UNK N   1     -44.567  64.830  38.592  0.00  0.00     0.198 C 
BRANCH  19  20
HETATM   20  O   UNK N   1     -44.087  63.981  37.583  0.00  0.00    -0.398 OA
HETATM   21  H   UNK N   1     -43.534  63.285  38.028  0.00  0.00     0.209 HD
ENDBRANCH  19  20
ENDBRANCH  15  19
BRANCH  16  22
HETATM   22  O   UNK N   1     -41.718  64.708  39.305  0.00  0.00    -0.390 OA
HETATM   23  H   UNK N   1     -41.093  65.075  38.629  0.00  0.00     0.210 HD
ENDBRANCH  16  22
BRANCH  17  24
HETATM   24  O   UNK N   1     -40.673  66.860  40.873  0.00  0.00    -0.390 OA
HETATM   25  H   UNK N   1     -39.805  66.759  40.403  0.00  0.00     0.210 HD
ENDBRANCH  17  24
BRANCH  18  26
HETATM   26  O   UNK N   1     -41.799  69.420  40.260  0.00  0.00    -0.388 OA
HETATM   27  H   UNK N   1     -41.023  69.260  40.856  0.00  0.00     0.210 HD
ENDBRANCH  18  26
ENDBRANCH  12  13
ENDBRANCH   3  12
BRANCH   8  28
HETATM   28  O   UNK N   1     -44.908  72.294  35.809  0.00  0.00    -0.360 OA
HETATM   29  H   UNK N   1     -44.769  71.601  35.158  0.00  0.00     0.217 HD
ENDBRANCH   8  28
BRANCH  10  30
HETATM   30  C   UNK N   1     -45.013  76.271  41.106  0.00  0.00    -0.002 A 
HETATM   31  C   UNK N   1     -44.995  77.639  40.777  0.00  0.00     0.017 A 
HETATM   32  C   UNK N   1     -45.016  78.610  41.783  0.00  0.00     0.037 A 
HETATM   33  C   UNK N   1     -45.082  78.228  43.130  0.00  0.00     0.065 A 
HETATM   34  C   UNK N   1     -45.116  76.871  43.464  0.00  0.00     0.037 A 
HETATM   35  C   UNK N   1     -45.070  75.897  42.464  0.00  0.00     0.017 A 
BRANCH  33  36
HETATM   36  O   UNK N   1     -45.116  79.155  44.108  0.00  0.00    -0.361 OA
HETATM   37  H   UNK N   1     -45.796  79.844  44.134  0.00  0.00     0.217 HD
ENDBRANCH  33  36
ENDBRANCH  10  30
TORSDOF 10
ENDMDL
MODEL 9
REMARK VINA RESULT:      -6.7      1.582      2.136
REMARK  10 active torsions:
REMARK  status: ('A' for Active; 'I' for Inactive)
REMARK    1  A    between atoms: O_2  and  C_15 
REMARK    2  A    between atoms: O_2  and  C_17 
REMARK    3  A    between atoms: O_3  and  C_11 
REMARK    4  A    between atoms: O_4  and  C_12 
REMARK    5  A    between atoms: O_5  and  C_13 
REMARK    6  A    between atoms: O_6  and  C_16 
REMARK    7  A    between atoms: O_8  and  C_22 
REMARK    8  A    between atoms: O_10  and  C_31 
REMARK    9  A    between atoms: C_14  and  C_16 
REMARK   10  A    between atoms: C_24  and  C_26 
ROOT
HETATM    1  O   UNK N   1     -19.802  70.461  33.633  0.00  0.00    -0.309 OA
HETATM    2  O   UNK N   1     -18.553  67.144  31.860  0.00  0.00    -0.287 OA
HETATM    3  C   UNK N   1     -22.963  69.593  32.091  0.00  0.00     0.077 A 
HETATM    4  C   UNK N   1     -21.990  70.265  32.827  0.00  0.00     0.075 A 
HETATM    5  C   UNK N   1     -22.603  68.428  31.387  0.00  0.00     0.074 A 
HETATM    6  C   UNK N   1     -20.683  69.785  32.900  0.00  0.00     0.095 A 
HETATM    7  C   UNK N   1     -20.310  68.594  32.225  0.00  0.00     0.081 A 
HETATM    8  C   UNK N   1     -21.299  67.921  31.436  0.00  0.00     0.085 A 
HETATM    9  C   UNK N   1     -18.971  68.152  32.394  0.00  0.00     0.190 A 
HETATM   10  C   UNK N   1     -18.550  70.055  33.824  0.00  0.00     0.090 A 
HETATM   11  C   UNK N   1     -18.105  68.879  33.209  0.00  0.00     0.094 A 
ENDROOT
BRANCH   3  12
HETATM   12  O   UNK N   1     -24.222  70.118  32.083  0.00  0.00    -0.318 OA
BRANCH  12  13
HETATM   13  C   UNK N   1     -25.437  69.465  32.215  0.00  0.00     0.298 C 
HETATM   14  O   UNK N   1     -25.229  68.362  33.075  0.00  0.00    -0.348 OA
HETATM   15  C   UNK N   1     -26.444  67.685  33.340  0.00  0.00     0.179 C 
HETATM   16  C   UNK N   1     -26.987  67.054  32.038  0.00  0.00     0.180 C 
HETATM   17  C   UNK N   1     -27.207  68.170  31.002  0.00  0.00     0.183 C 
HETATM   18  C   UNK N   1     -25.903  68.971  30.830  0.00  0.00     0.205 C 
BRANCH  15  19
HETATM   19  C   UNK N   1     -26.167  66.620  34.409  0.00  0.00     0.198 C 
BRANCH  19  20
HETATM   20  O   UNK N   1     -26.903  66.891  35.572  0.00  0.00    -0.398 OA
HETATM   21  H   UNK N   1     -27.399  66.061  35.802  0.00  0.00     0.209 HD
ENDBRANCH  19  20
ENDBRANCH  15  19
BRANCH  16  22
HETATM   22  O   UNK N   1     -28.198  66.390  32.297  0.00  0.00    -0.390 OA
HETATM   23  H   UNK N   1     -28.926  66.977  31.965  0.00  0.00     0.210 HD
ENDBRANCH  16  22
BRANCH  17  24
HETATM   24  O   UNK N   1     -27.605  67.609  29.778  0.00  0.00    -0.390 OA
HETATM   25  H   UNK N   1     -27.543  66.624  29.876  0.00  0.00     0.210 HD
ENDBRANCH  17  24
BRANCH  18  26
HETATM   26  O   UNK N   1     -26.134  70.058  29.971  0.00  0.00    -0.388 OA
HETATM   27  H   UNK N   1     -25.879  69.765  29.057  0.00  0.00     0.210 HD
ENDBRANCH  18  26
ENDBRANCH  12  13
ENDBRANCH   3  12
BRANCH   8  28
HETATM   28  O   UNK N   1     -21.057  66.798  30.719  0.00  0.00    -0.360 OA
HETATM   29  H   UNK N   1     -20.928  65.910  31.066  0.00  0.00     0.217 HD
ENDBRANCH   8  28
BRANCH  10  30
HETATM   30  C   UNK N   1     -17.665  70.862  34.703  0.00  0.00    -0.002 A 
HETATM   31  C   UNK N   1     -17.792  72.263  34.720  0.00  0.00     0.017 A 
HETATM   32  C   UNK N   1     -16.968  73.038  35.543  0.00  0.00     0.037 A 
HETATM   33  C   UNK N   1     -16.027  72.422  36.379  0.00  0.00     0.065 A 
HETATM   34  C   UNK N   1     -15.906  71.030  36.379  0.00  0.00     0.037 A 
HETATM   35  C   UNK N   1     -16.709  70.252  35.540  0.00  0.00     0.017 A 
BRANCH  33  36
HETATM   36  O   UNK N   1     -15.237  73.158  37.186  0.00  0.00    -0.361 OA
HETATM   37  H   UNK N   1     -14.660  72.748  37.848  0.00  0.00     0.217 HD
ENDBRANCH  33  36
ENDBRANCH  10  30
TORSDOF 10
ENDMDL
